 34
 Mol --> ZINC00000071 
       C1 3.9785 0.5008 -2.4654 C.3 1 <0> 0.0000
       C2 3.3916 0.7264 -3.8497 C.3 1 <0> 0.1800
       C3 1.9178 0.9211 -3.7955 C.2 1 <0> -0.0400
       C4 0.8272 0.0936 -3.5620 C.2 1 <0> -0.0860
       C5 -0.3181 0.9530 -3.5545 C.ar 1 <0> 0.0000
       C6 -1.7031 0.7838 -3.3632 C.ar 1 <0> -0.1500
       C7 -2.5410 1.9043 -3.4477 C.ar 1 <0> -0.1500
       C8 -2.0212 3.1718 -3.7181 C.ar 1 <0> -0.1500
       C9 -0.6506 3.3644 -3.9120 C.ar 1 <0> -0.1500
      C10 0.1551 2.2308 -3.8201 C.ar 1 <0> 0.1400
      O1 1.5049 2.2104 -3.9672 O.3 1 <0> -0.2800
      C11 0.8361 -1.3373 -3.3056 C.2 1 <0> 0.5698
      O2 0.1153 -1.8482 -2.4536 O.2 1 <0> -0.5700
      C12 1.7094 -2.2202 -4.1085 C.ar 1 <0> 0.0862
      C13 1.8225 -2.0519 -5.4937 C.ar 1 <0> -0.1500
      C14 2.6343 -2.9145 -6.2306 C.ar 1 <0> -0.1500
      C15 3.3160 -3.9425 -5.5831 C.ar 1 <0> 0.0825
      C16 3.1944 -4.1265 -4.2067 C.ar 1 <0> -0.1500
      C17 2.3826 -3.2663 -3.4669 C.ar 1 <0> -0.1500
      O3 4.1024 -4.7676 -6.3366 O.3 1 <0> -0.5325
      H1 4.5065 -5.4310 -5.7516 H 1 <0> 0.4500
      H2 5.0648 0.3818 -2.5295 H 1 <0> 0.0000
      H3 3.7678 1.3483 -1.8041 H 1 <0> 0.0000
      H4 3.5672 -0.3997 -1.9975 H 1 <0> 0.0000
      H5 3.8648 1.6097 -4.2955 H 1 <0> 0.0000
      H6 3.6461 -0.1151 -4.4997 H 1 <0> 0.0000
      H7 -2.1242 -0.1955 -3.1550 H 1 <0> 0.1500
      H8 -3.6114 1.7830 -3.3011 H 1 <0> 0.1500
      H9 -2.6936 4.0242 -3.7784 H 1 <0> 0.1500
      H10 -0.2365 4.3437 -4.1201 H 1 <0> 0.1500
      H11 1.2831 -1.2641 -6.0127 H 1 <0> 0.1500
      H12 2.7276 -2.7837 -7.3051 H 1 <0> 0.1500
      H13 3.7207 -4.9314 -3.7020 H 1 <0> 0.1500
      H14 2.2890 -3.4145 -2.3940 H 1 <0> 0.1500
