400
MOL
C 14.57100 16.86900 13.68400
C 13.88500 16.01600 12.62600
C 14.10400 16.62200 11.22900
C 13.50200 15.85600 10.05700
O 14.51000 16.28000 14.89200
O 15.12500 17.91700 13.48700
H 12.76700 15.96900 12.84500
H 14.31800 14.96200 12.64700
H 15.22600 16.71900 11.05400
H 13.64500 17.66400 11.19000
H 12.36400 15.91100 10.09400
H 13.84500 14.77000 10.09700
C 13.92900 15.93200 19.67900
C 14.61500 16.78400 18.62100
C 14.39500 16.17900 17.22400
C 14.99800 16.94500 16.05200
O 13.98900 16.52100 8.89700
O 13.37400 14.88300 19.48200
H 15.73200 16.83200 18.84000
H 14.18100 17.83800 18.64200
H 13.27300 16.08200 17.04900
H 14.85500 15.13600 17.18500
H 16.13600 16.89000 16.08900
H 14.65400 18.03100 16.09200
C 17.80400 19.25400 9.43800
C 18.49000 18.40100 10.49600
C 18.27000 19.00700 11.89300
C 18.87300 18.24100 13.06500
O 17.86400 18.66500 20.22000
O 17.24900 20.30200 9.63500
H 19.60700 18.35400 10.27700
H 18.05600 17.34700 10.47500
H 17.14800 19.10400 12.06900
H 18.73000 20.04900 11.93200
H 20.01100 18.29600 13.02800
H 18.52900 17.15500 13.02500
C 18.44600 18.31700 15.43300
C 17.76000 19.16900 16.49100
C 17.97900 18.56400 17.88800
C 17.37700 19.33000 19.06000
O 18.38500 18.90600 14.22500
O 19.00000 17.26800 15.63000
H 16.64200 19.21700 16.27200
H 18.19300 20.22300 16.47000
H 19.10100 18.46700 18.06400
H 17.52000 17.52100 17.92700
H 16.23900 19.27500 19.02300
H 17.72000 20.41600 19.02000
C 22.32100 16.86900 13.68400
C 21.63500 16.01600 12.62600
C 21.85400 16.62200 11.22900
C 21.25200 15.85600 10.05700
O 22.26000 16.28000 14.89200
O 22.87500 17.91700 13.48700
H 20.51700 15.96900 12.84500
H 22.06800 14.96200 12.64700
H 22.97600 16.71900 11.05400
H 21.39500 17.66400 11.19000
H 20.11400 15.91100 10.09400
H 21.59500 14.77000 10.09700
C 21.67900 15.93200 19.67900
C 22.36500 16.78400 18.62100
C 22.14500 16.17900 17.22400
C 22.74800 16.94500 16.05200
O 21.73900 16.52100 8.89700
O 21.12400 14.88300 19.48200
H 23.48200 16.83200 18.84000
H 21.93100 17.83800 18.64200
H 21.02300 16.08200 17.04900
H 22.60500 15.13600 17.18500
H 23.88600 16.89000 16.08900
H 22.40400 18.03100 16.09200
C 25.55400 19.25400 9.43800
C 26.24000 18.40100 10.49600
C 26.02000 19.00700 11.89300
C 26.62300 18.24100 13.06500
O 25.61400 18.66500 20.22000
O 24.99900 20.30200 9.63500
H 27.35700 18.35400 10.27700
H 25.80600 17.34700 10.47500
H 24.89800 19.10400 12.06900
H 26.48000 20.04900 11.93200
H 27.76100 18.29600 13.02800
H 26.27900 17.15500 13.02500
C 26.19600 18.31700 15.43300
C 25.51000 19.16900 16.49100
C 25.72900 18.56400 17.88800
C 25.12700 19.33000 19.06000
O 26.13500 18.90600 14.22500
O 26.75000 17.26800 15.63000
H 24.39200 19.21700 16.27200
H 25.94300 20.22300 16.47000
H 26.85100 18.46700 18.06400
H 25.27000 17.52100 17.92700
H 23.98900 19.27500 19.02300
H 25.47000 20.41600 19.02000
C 14.57100 21.63900 13.68400
C 13.88500 20.78600 12.62600
C 14.10400 21.39200 11.22900
C 13.50200 20.62600 10.05700
O 14.51000 21.05000 14.89200
O 15.12500 22.68700 13.48700
H 12.76700 20.73900 12.84500
H 14.31800 19.73200 12.64700
H 15.22600 21.48900 11.05400
H 13.64500 22.43400 11.19000
H 12.36400 20.68100 10.09400
H 13.84500 19.54000 10.09700
C 13.92900 20.70200 19.67900
C 14.61500 21.55400 18.62100
C 14.39500 20.94900 17.22400
C 14.99800 21.71500 16.05200
O 13.98900 21.29100 8.89700
O 13.37400 19.65300 19.48200
H 15.73200 21.60200 18.84000
H 14.18100 22.60800 18.64200
H 13.27300 20.85200 17.04900
H 14.85500 19.90600 17.18500
H 16.13600 21.66000 16.08900
H 14.65400 22.80100 16.09200
C 17.80400 24.02400 9.43800
C 18.49000 23.17100 10.49600
C 18.27000 23.77700 11.89300
C 18.87300 23.01100 13.06500
O 17.86400 23.43500 20.22000
O 17.24900 25.07200 9.63500
H 19.60700 23.12400 10.27700
H 18.05600 22.11700 10.47500
H 17.14800 23.87400 12.06900
H 18.73000 24.81900 11.93200
H 20.01100 23.06600 13.02800
H 18.52900 21.92500 13.02500
C 18.44600 23.08700 15.43300
C 17.76000 23.93900 16.49100
C 17.97900 23.33400 17.88800
C 17.37700 24.10000 19.06000
O 18.38500 23.67600 14.22500
O 19.00000 22.03800 15.63000
H 16.64200 23.98700 16.27200
H 18.19300 24.99300 16.47000
H 19.10100 23.23700 18.06400
H 17.52000 22.29100 17.92700
H 16.23900 24.04500 19.02300
H 17.72000 25.18600 19.02000
C 22.32100 21.63900 13.68400
C 21.63500 20.78600 12.62600
C 21.85400 21.39200 11.22900
C 21.25200 20.62600 10.05700
O 22.26000 21.05000 14.89200
O 22.87500 22.68700 13.48700
H 20.51700 20.73900 12.84500
H 22.06800 19.73200 12.64700
H 22.97600 21.48900 11.05400
H 21.39500 22.43400 11.19000
H 20.11400 20.68100 10.09400
H 21.59500 19.54000 10.09700
C 21.67900 20.70200 19.67900
C 22.36500 21.55400 18.62100
C 22.14500 20.94900 17.22400
C 22.74800 21.71500 16.05200
O 21.73900 21.29100 8.89700
O 21.12400 19.65300 19.48200
H 23.48200 21.60200 18.84000
H 21.93100 22.60800 18.64200
H 21.02300 20.85200 17.04900
H 22.60500 19.90600 17.18500
H 23.88600 21.66000 16.08900
H 22.40400 22.80100 16.09200
C 25.55400 24.02400 9.43800
C 26.24000 23.17100 10.49600
C 26.02000 23.77700 11.89300
C 26.62300 23.01100 13.06500
O 25.61400 23.43500 20.22000
O 24.99900 25.07200 9.63500
H 27.35700 23.12400 10.27700
H 25.80600 22.11700 10.47500
H 24.89800 23.87400 12.06900
H 26.48000 24.81900 11.93200
H 27.76100 23.06600 13.02800
H 26.27900 21.92500 13.02500
C 26.19600 23.08700 15.43300
C 25.51000 23.93900 16.49100
C 25.72900 23.33400 17.88800
C 25.12700 24.10000 19.06000
O 26.13500 23.67600 14.22500
O 26.75000 22.03800 15.63000
H 24.39200 23.98700 16.27200
H 25.94300 24.99300 16.47000
H 26.85100 23.23700 18.06400
H 25.27000 22.29100 17.92700
H 23.98900 24.04500 19.02300
H 25.47000 25.18600 19.02000
C 14.57100 16.86900 25.67400
C 13.88500 16.01600 24.61600
C 14.10400 16.62200 23.21900
C 13.50200 15.85600 22.04700
O 14.51000 16.28000 26.88200
O 15.12500 17.91700 25.47700
H 12.76700 15.96900 24.83500
H 14.31800 14.96200 24.63700
H 15.22600 16.71900 23.04400
H 13.64500 17.66400 23.18000
H 12.36400 15.91100 22.08400
H 13.84500 14.77000 22.08700
C 13.92900 15.93200 31.66900
C 14.61500 16.78400 30.61100
C 14.39500 16.17900 29.21400
C 14.99800 16.94500 28.04200
O 13.98900 16.52100 20.88700
O 13.37400 14.88300 31.47200
H 15.73200 16.83200 30.83000
H 14.18100 17.83800 30.63200
H 13.27300 16.08200 29.03900
H 14.85500 15.13600 29.17500
H 16.13600 16.89000 28.07900
H 14.65400 18.03100 28.08200
C 17.80400 19.25400 21.42800
C 18.49000 18.40100 22.48600
C 18.27000 19.00700 23.88300
C 18.87300 18.24100 25.05500
O 17.86400 18.66500 32.21000
O 17.24900 20.30200 21.62500
H 19.60700 18.35400 22.26700
H 18.05600 17.34700 22.46500
H 17.14800 19.10400 24.05900
H 18.73000 20.04900 23.92200
H 20.01100 18.29600 25.01800
H 18.52900 17.15500 25.01500
C 18.44600 18.31700 27.42300
C 17.76000 19.16900 28.48100
C 17.97900 18.56400 29.87800
C 17.37700 19.33000 31.05000
O 18.38500 18.90600 26.21500
O 19.00000 17.26800 27.62000
H 16.64200 19.21700 28.26200
H 18.19300 20.22300 28.46000
H 19.10100 18.46700 30.05400
H 17.52000 17.52100 29.91700
H 16.23900 19.27500 31.01300
H 17.72000 20.41600 31.01000
C 22.32100 16.86900 25.67400
C 21.63500 16.01600 24.61600
C 21.85400 16.62200 23.21900
C 21.25200 15.85600 22.04700
O 22.26000 16.28000 26.88200
O 22.87500 17.91700 25.47700
H 20.51700 15.96900 24.83500
H 22.06800 14.96200 24.63700
H 22.97600 16.71900 23.04400
H 21.39500 17.66400 23.18000
H 20.11400 15.91100 22.08400
H 21.59500 14.77000 22.08700
C 21.67900 15.93200 31.66900
C 22.36500 16.78400 30.61100
C 22.14500 16.17900 29.21400
C 22.74800 16.94500 28.04200
O 21.73900 16.52100 20.88700
O 21.12400 14.88300 31.47200
H 23.48200 16.83200 30.83000
H 21.93100 17.83800 30.63200
H 21.02300 16.08200 29.03900
H 22.60500 15.13600 29.17500
H 23.88600 16.89000 28.07900
H 22.40400 18.03100 28.08200
C 25.55400 19.25400 21.42800
C 26.24000 18.40100 22.48600
C 26.02000 19.00700 23.88300
C 26.62300 18.24100 25.05500
O 25.61400 18.66500 32.21000
O 24.99900 20.30200 21.62500
H 27.35700 18.35400 22.26700
H 25.80600 17.34700 22.46500
H 24.89800 19.10400 24.05900
H 26.48000 20.04900 23.92200
H 27.76100 18.29600 25.01800
H 26.27900 17.15500 25.01500
C 26.19600 18.31700 27.42300
C 25.51000 19.16900 28.48100
C 25.72900 18.56400 29.87800
C 25.12700 19.33000 31.05000
O 26.13500 18.90600 26.21500
O 26.75000 17.26800 27.62000
H 24.39200 19.21700 28.26200
H 25.94300 20.22300 28.46000
H 26.85100 18.46700 30.05400
H 25.27000 17.52100 29.91700
H 23.98900 19.27500 31.01300
H 25.47000 20.41600 31.01000
C 14.57100 21.63900 25.67400
C 13.88500 20.78600 24.61600
C 14.10400 21.39200 23.21900
C 13.50200 20.62600 22.04700
O 14.51000 21.05000 26.88200
O 15.12500 22.68700 25.47700
H 12.76700 20.73900 24.83500
H 14.31800 19.73200 24.63700
H 15.22600 21.48900 23.04400
H 13.64500 22.43400 23.18000
H 12.36400 20.68100 22.08400
H 13.84500 19.54000 22.08700
C 13.92900 20.70200 31.66900
C 14.61500 21.55400 30.61100
C 14.39500 20.94900 29.21400
C 14.99800 21.71500 28.04200
O 13.98900 21.29100 20.88700
O 13.37400 19.65300 31.47200
H 15.73200 21.60200 30.83000
H 14.18100 22.60800 30.63200
H 13.27300 20.85200 29.03900
H 14.85500 19.90600 29.17500
H 16.13600 21.66000 28.07900
H 14.65400 22.80100 28.08200
C 17.80400 24.02400 21.42800
C 18.49000 23.17100 22.48600
C 18.27000 23.77700 23.88300
C 18.87300 23.01100 25.05500
O 17.86400 23.43500 32.21000
O 17.24900 25.07200 21.62500
H 19.60700 23.12400 22.26700
H 18.05600 22.11700 22.46500
H 17.14800 23.87400 24.05900
H 18.73000 24.81900 23.92200
H 20.01100 23.06600 25.01800
H 18.52900 21.92500 25.01500
C 18.44600 23.08700 27.42300
C 17.76000 23.93900 28.48100
C 17.97900 23.33400 29.87800
C 17.37700 24.10000 31.05000
O 18.38500 23.67600 26.21500
O 19.00000 22.03800 27.62000
H 16.64200 23.98700 28.26200
H 18.19300 24.99300 28.46000
H 19.10100 23.23700 30.05400
H 17.52000 22.29100 29.91700
H 16.23900 24.04500 31.01300
H 17.72000 25.18600 31.01000
C 22.32100 21.63900 25.67400
C 21.63500 20.78600 24.61600
C 21.85400 21.39200 23.21900
C 21.25200 20.62600 22.04700
O 22.26000 21.05000 26.88200
O 22.87500 22.68700 25.47700
H 20.51700 20.73900 24.83500
H 22.06800 19.73200 24.63700
H 22.97600 21.48900 23.04400
H 21.39500 22.43400 23.18000
H 20.11400 20.68100 22.08400
H 21.59500 19.54000 22.08700
C 21.67900 20.70200 31.66900
C 22.36500 21.55400 30.61100
C 22.14500 20.94900 29.21400
C 22.74800 21.71500 28.04200
O 21.73900 21.29100 20.88700
O 21.12400 19.65300 31.47200
H 23.48200 21.60200 30.83000
H 21.93100 22.60800 30.63200
H 21.02300 20.85200 29.03900
H 22.60500 19.90600 29.17500
H 23.88600 21.66000 28.07900
H 22.40400 22.80100 28.08200
C 25.55400 24.02400 21.42800
C 26.24000 23.17100 22.48600
C 26.02000 23.77700 23.88300
C 26.62300 23.01100 25.05500
O 25.61400 23.43500 32.21000
O 24.99900 25.07200 21.62500
H 27.35700 23.12400 22.26700
H 25.80600 22.11700 22.46500
H 24.89800 23.87400 24.05900
H 26.48000 24.81900 23.92200
H 27.76100 23.06600 25.01800
H 26.27900 21.92500 25.01500
C 26.19600 23.08700 27.42300
C 25.51000 23.93900 28.48100
C 25.72900 23.33400 29.87800
C 25.12700 24.10000 31.05000
O 26.13500 23.67600 26.21500
O 26.75000 22.03800 27.62000
H 24.39200 23.98700 28.26200
H 25.94300 24.99300 28.46000
H 26.85100 23.23700 30.05400
H 25.27000 22.29100 29.91700
H 23.98900 24.04500 31.01300
H 25.47000 25.18600 31.01000
H 14.72700 17.29500 9.19600
H 17.78900 18.91000 8.35100
H 22.47700 17.29500 9.19600
H 25.53900 18.91000 8.35100
H 14.72700 22.06500 9.19600
H 17.78900 23.68000 8.35100
H 22.47700 22.06500 9.19600
H 25.53900 23.68000 8.35100
H 13.91400 16.27600 32.75600
H 17.38000 19.09300 33.11300
H 21.66400 16.27600 32.75600
H 25.13000 19.09300 33.11300
H 13.91400 21.04600 32.75600
H 17.38000 23.86300 33.11300
H 21.66400 21.04600 32.75600
H 25.13000 23.86300 33.11300
