136
MOL
C 6.72600 -5.08700 10.16900
C 4.86100 -4.65500 6.90300
H 4.11000 -3.96200 6.49600
C 5.27300 -4.46900 8.21200
H 4.82700 -3.63800 8.77900
C 6.23200 -5.31300 8.79000
C 6.75100 -6.36200 8.01900
H 7.51400 -7.04200 8.42900
C 6.34200 -6.54700 6.70900
H 6.78900 -7.37500 6.13800
C 5.39500 -5.69300 6.12600
O 5.36800 -6.74700 3.94500
C 4.98200 -5.89500 4.71600
O 4.06300 -4.96200 4.32400
O 6.15300 -3.97600 10.72200
O 7.54100 -5.73100 10.79400
C 3.52600 -5.01200 2.98700
H 3.20100 -3.98200 2.76100
H 4.30900 -5.27000 2.25700
C 2.34400 -5.96900 2.86600
H 1.57100 -5.70900 3.60600
H 2.66100 -7.00700 3.05200
H 1.89500 -5.92100 1.86200
C 5.69700 1.93300 5.75100
C 5.31800 -0.29600 8.76500
H 4.68800 -1.15400 9.04100
C 5.11200 0.28600 7.52700
H 4.33300 -0.13400 6.87300
C 5.89200 1.37200 7.10900
C 6.85300 1.88700 7.98800
H 7.46900 2.75700 7.71400
C 7.06700 1.29900 9.22400
H 7.84800 1.72000 9.87500
C 6.31400 0.18700 9.62600
O 7.52700 -0.29000 11.67200
C 6.59200 -0.47600 10.92200
O 5.63700 -1.40700 11.21400
O 6.74600 2.72900 5.36800
O 4.76300 1.74300 5.00000
C 5.80000 -2.28600 12.34600
H 6.20100 -1.74500 13.21600
H 4.77900 -2.60900 12.60500
C 6.62300 -3.48500 11.99600
H 6.54000 -4.26600 12.76800
H 7.69100 -3.22100 11.91900
C 14.30600 -0.98400 2.96300
C 10.87100 0.14300 1.89700
H 10.16100 -0.11200 1.09500
C 12.06800 -0.55100 1.95800
H 12.26000 -1.32800 1.20200
C 13.01600 -0.26000 2.94900
C 12.71300 0.73300 3.89100
H 13.41700 0.99800 4.69400
C 11.51900 1.43200 3.82500
H 11.34200 2.21500 4.57600
C 10.58000 1.15600 2.82100
O 8.48200 1.84100 1.82600
C 9.32100 1.93000 2.69800
O 9.17700 2.84700 3.70400
O 15.08200 -0.67600 4.03500
O 14.72900 -1.78900 2.15600
C 8.08300 3.78800 3.64700
H 8.34600 4.58400 4.36100
H 8.03600 4.24800 2.64800
C 6.74100 3.23200 4.01500
H 6.46700 2.42700 3.31500
H 5.97600 4.02000 3.91300
H 15.91000 -1.16100 3.95600
C 14.83100 21.55400 0.74500
C 11.34800 22.53900 1.86700
H 10.89600 23.01300 2.75100
C 12.72400 22.37100 1.85400
H 13.29400 22.71900 2.72700
C 13.36500 21.77200 0.76100
C 12.58300 21.35500 -0.32500
H 13.04300 20.88000 -1.20500
C 11.20900 21.52300 -0.31400
H 10.63400 21.17500 -1.18600
C 10.56600 22.11400 0.78300
O 8.31600 21.95900 -0.10300
C 9.09300 22.27100 0.77500
O 8.63200 22.84600 1.93000
O 15.42700 22.03900 1.87400
O 15.49600 21.01000 -0.11300
C 7.21100 23.05300 2.07000
H 6.82700 23.63400 1.21700
H 6.68800 22.08300 2.06400
C 6.96000 23.79200 3.37500
H 7.48800 24.75900 3.36100
H 7.34800 23.19700 4.21500
H 5.89000 23.98400 3.54900
C 10.51000 22.01500 7.17000
C 13.78000 22.91600 5.50900
H 14.19900 23.79400 5.00000
C 12.49900 23.01900 6.01700
H 11.97000 23.97600 5.88600
C 11.89900 21.93000 6.66400
C 12.63300 20.74500 6.80800
H 12.20000 19.87000 7.31600
C 13.91500 20.64100 6.29400
H 14.44800 19.68600 6.41100
C 14.50300 21.72100 5.62100
O 16.59100 20.62600 5.04700
C 15.83900 21.57600 4.99900
O 16.16400 22.68700 4.27100
O 9.94000 23.21200 6.84000
O 9.88000 21.18200 7.78500
C 17.23400 22.61300 3.30900
H 17.41900 23.66100 3.02100
H 18.15900 22.23800 3.77500
C 16.83500 21.81400 2.10200
H 17.00900 20.73600 2.25400
H 17.42100 22.10400 1.21600
C 12.30400 30.56700 10.03000
C 10.57800 27.46900 8.75400
H 10.43800 26.43800 9.11500
C 11.31100 28.33600 9.54600
H 11.71900 27.95600 10.49600
C 11.52400 29.66500 9.15400
C 10.97700 30.09800 7.93800
H 11.10900 31.13100 7.58400
C 10.24100 29.23200 7.14700
H 9.81100 29.61900 6.21100
C 10.03100 27.90300 7.54000
O 8.77400 27.21300 5.58500
C 9.22600 26.99600 6.68900
O 9.00500 25.79600 7.30600
O 12.49100 31.80300 9.49700
O 12.77100 30.33200 11.12900
C 8.21000 24.80200 6.63000
H 7.13900 25.03300 6.74100
H 8.43700 24.80300 5.55400
C 8.55900 23.46000 7.16900
H 7.92500 22.67700 6.73100
H 8.41400 23.44200 8.26000
H 12.99700 32.32600 10.12700
