37
MOL
C 7.13275 8.62324 0.83766
H 8.15408 8.94364 0.59257
H 6.47190 9.50023 0.87134
H 6.77561 7.92502 0.06640
H 7.12692 8.12037 1.81443
C 6.44122 4.72530 1.15322
C 5.38652 4.32760 1.87036
H 7.34399 5.10450 1.62928
H 6.44104 4.70035 0.06099
H 5.39079 4.37109 2.96139
H 4.47987 3.95381 1.39887
C -0.62344 4.04257 5.14482
C 0.66087 4.49729 5.49097
C 1.80184 3.88957 4.99003
C 1.71674 2.80677 4.11614
C 0.44677 2.35171 3.76216
C -0.69639 2.94838 4.26782
H 0.75939 5.35022 6.17683
H 2.79781 4.26200 5.28349
H 0.35416 1.50022 3.07366
H -1.68330 2.56518 3.97435
C 3.14190 0.75050 4.14334
C 2.96601 2.15890 3.56577
H 2.27732 0.11806 3.87597
H 3.16425 0.80899 5.24648
H 2.92544 2.11741 2.46372
H 3.85183 2.76151 3.82366
C 4.62452 -1.32538 4.21982
C 4.42915 0.07963 3.65406
H 4.67881 -1.30876 5.32126
H 5.56238 -1.77777 3.85750
H 3.79872 -1.99611 3.93363
H 4.42376 0.03168 2.55097
H 5.29370 0.70494 3.94069
C -1.87339 4.70162 5.69086
O -2.95690 4.20626 5.35509
O -1.70053 5.68255 6.42420
